  
       XFOIL         Version 6.97
  
 Calculated polar for: NACA 23017 Airfoil                              
  
 1 1 Reynolds number fixed          Mach number fixed         
  
 xtrf =   1.000 (top)        1.000 (bottom)  
 Mach =   0.200     Re =     1.500 e 6     Ncrit =   9.000
  
   alpha    CL        CD       CDp       CM     Top_Xtr  Bot_Xtr
  ------ -------- --------- --------- -------- -------- --------
 -15.000  -1.2922   0.02726   0.02239  -0.0531   1.0000   0.0261
 -14.900  -1.2873   0.02675   0.02186  -0.0528   1.0000   0.0262
 -14.800  -1.2822   0.02627   0.02135  -0.0524   1.0000   0.0263
 -14.700  -1.2804   0.02555   0.02061  -0.0518   1.0000   0.0265
 -14.600  -1.2780   0.02490   0.01994  -0.0513   1.0000   0.0266
 -14.500  -1.2746   0.02434   0.01935  -0.0507   1.0000   0.0268
 -14.400  -1.2705   0.02383   0.01883  -0.0502   1.0000   0.0269
 -14.300  -1.2660   0.02337   0.01835  -0.0496   1.0000   0.0271
 -14.200  -1.2611   0.02294   0.01790  -0.0490   1.0000   0.0272
 -14.100  -1.2559   0.02253   0.01748  -0.0485   1.0000   0.0274
 -14.000  -1.2504   0.02215   0.01709  -0.0479   1.0000   0.0275
 -13.900  -1.2448   0.02179   0.01671  -0.0473   1.0000   0.0277
 -13.800  -1.2392   0.02144   0.01634  -0.0467   1.0000   0.0279
 -13.700  -1.2334   0.02110   0.01599  -0.0461   1.0000   0.0280
 -13.600  -1.2275   0.02078   0.01565  -0.0454   1.0000   0.0282
 -13.500  -1.2216   0.02047   0.01532  -0.0448   1.0000   0.0284
 -13.400  -1.2156   0.02017   0.01500  -0.0441   1.0000   0.0286
 -13.300  -1.2094   0.01989   0.01470  -0.0435   1.0000   0.0287
 -13.200  -1.2031   0.01962   0.01442  -0.0428   1.0000   0.0289
 -13.100  -1.1966   0.01938   0.01415  -0.0421   1.0000   0.0291
 -13.000  -1.1898   0.01915   0.01391  -0.0414   1.0000   0.0292
 -12.900  -1.1861   0.01878   0.01352  -0.0404   1.0000   0.0295
 -12.800  -1.1819   0.01846   0.01319  -0.0394   1.0000   0.0297
 -12.700  -1.1770   0.01818   0.01291  -0.0384   1.0000   0.0299
 -12.600  -1.1719   0.01794   0.01266  -0.0375   1.0000   0.0301
 -12.500  -1.1668   0.01772   0.01243  -0.0365   1.0000   0.0303
 -12.400  -1.1620   0.01751   0.01222  -0.0353   1.0000   0.0305
 -12.300  -1.1577   0.01733   0.01203  -0.0341   1.0000   0.0307
 -12.200  -1.1543   0.01716   0.01185  -0.0327   1.0000   0.0309
 -12.100  -1.1520   0.01702   0.01169  -0.0310   1.0000   0.0310
 -12.000  -1.1509   0.01688   0.01154  -0.0291   1.0000   0.0312
 -11.900  -1.1517   0.01678   0.01142  -0.0268   1.0000   0.0313
 -11.800  -1.1554   0.01670   0.01133  -0.0239   1.0000   0.0315
 -11.700  -1.1606   0.01665   0.01126  -0.0208   1.0000   0.0316
 -11.600  -1.1484   0.01645   0.01105  -0.0210   0.9994   0.0318
 -11.500  -1.1359   0.01627   0.01086  -0.0212   0.9988   0.0321
 -11.400  -1.1230   0.01609   0.01067  -0.0215   0.9981   0.0323
 -11.300  -1.1113   0.01581   0.01037  -0.0216   0.9973   0.0327
 -11.200  -1.0991   0.01555   0.01012  -0.0219   0.9965   0.0330
 -11.100  -1.0864   0.01534   0.00990  -0.0222   0.9957   0.0334
 -11.000  -1.0734   0.01514   0.00971  -0.0225   0.9951   0.0337
 -10.900  -1.0602   0.01496   0.00953  -0.0229   0.9944   0.0341
 -10.800  -1.0468   0.01479   0.00936  -0.0233   0.9939   0.0344
 -10.700  -1.0333   0.01463   0.00919  -0.0237   0.9934   0.0348
 -10.600  -1.0197   0.01448   0.00903  -0.0241   0.9929   0.0352
 -10.500  -1.0058   0.01433   0.00887  -0.0245   0.9925   0.0355
 -10.400  -0.9936   0.01413   0.00866  -0.0247   0.9916   0.0359
 -10.300  -0.9820   0.01392   0.00845  -0.0248   0.9903   0.0364
 -10.200  -0.9695   0.01374   0.00827  -0.0250   0.9892   0.0368
 -10.100  -0.9567   0.01357   0.00811  -0.0253   0.9881   0.0372
 -10.000  -0.9437   0.01342   0.00796  -0.0255   0.9870   0.0376
  -9.900  -0.9307   0.01327   0.00781  -0.0258   0.9858   0.0381
  -9.800  -0.9176   0.01313   0.00766  -0.0261   0.9847   0.0385
  -9.700  -0.9046   0.01300   0.00752  -0.0264   0.9836   0.0389
  -9.600  -0.8916   0.01287   0.00738  -0.0266   0.9824   0.0393
  -9.500  -0.8825   0.01269   0.00721  -0.0261   0.9792   0.0398
  -9.400  -0.8720   0.01254   0.00706  -0.0258   0.9766   0.0404
  -9.300  -0.8609   0.01241   0.00693  -0.0257   0.9743   0.0409
  -9.200  -0.8493   0.01228   0.00680  -0.0257   0.9724   0.0414
  -9.100  -0.8397   0.01218   0.00669  -0.0252   0.9690   0.0419
  -9.000  -0.8298   0.01208   0.00659  -0.0247   0.9656   0.0424
  -8.900  -0.8194   0.01198   0.00647  -0.0244   0.9626   0.0428
  -8.800  -0.8094   0.01186   0.00634  -0.0240   0.9597   0.0433
  -8.700  -0.8004   0.01172   0.00621  -0.0234   0.9556   0.0439
  -8.600  -0.7908   0.01161   0.00609  -0.0230   0.9519   0.0445
  -8.500  -0.7810   0.01150   0.00598  -0.0225   0.9486   0.0451
  -8.400  -0.7710   0.01141   0.00588  -0.0221   0.9446   0.0457
  -8.300  -0.7609   0.01132   0.00578  -0.0217   0.9405   0.0463
  -8.200  -0.7508   0.01124   0.00569  -0.0213   0.9367   0.0469
  -8.100  -0.7408   0.01114   0.00557  -0.0209   0.9328   0.0475
  -8.000  -0.7310   0.01102   0.00546  -0.0205   0.9283   0.0483
  -7.900  -0.7210   0.01093   0.00535  -0.0201   0.9239   0.0490
  -7.800  -0.7107   0.01084   0.00526  -0.0197   0.9198   0.0498
  -7.700  -0.7002   0.01076   0.00517  -0.0194   0.9151   0.0505
  -7.600  -0.6897   0.01069   0.00508  -0.0191   0.9104   0.0512
  -7.500  -0.6795   0.01060   0.00497  -0.0187   0.9059   0.0520
  -7.400  -0.6691   0.01050   0.00487  -0.0184   0.9010   0.0529
  -7.300  -0.6588   0.01041   0.00478  -0.0181   0.8958   0.0538
  -7.200  -0.6483   0.01034   0.00469  -0.0178   0.8910   0.0548
  -7.100  -0.6374   0.01027   0.00461  -0.0176   0.8858   0.0557
  -7.000  -0.6268   0.01020   0.00452  -0.0173   0.8802   0.0567
  -6.900  -0.6165   0.01011   0.00443  -0.0170   0.8751   0.0578
  -6.800  -0.6057   0.01003   0.00435  -0.0167   0.8695   0.0590
  -6.700  -0.5951   0.00997   0.00427  -0.0164   0.8637   0.0601
  -6.600  -0.5841   0.00992   0.00419  -0.0162   0.8583   0.0612
  -6.500  -0.5735   0.00984   0.00410  -0.0160   0.8522   0.0625
  -6.400  -0.5630   0.00977   0.00402  -0.0157   0.8462   0.0639
  -6.300  -0.5520   0.00970   0.00395  -0.0155   0.8404   0.0654
  -6.200  -0.5411   0.00965   0.00388  -0.0153   0.8339   0.0667
  -6.100  -0.5305   0.00958   0.00380  -0.0150   0.8279   0.0685
  -6.000  -0.5197   0.00951   0.00372  -0.0148   0.8214   0.0704
  -5.900  -0.5089   0.00946   0.00365  -0.0145   0.8149   0.0722
  -5.800  -0.4979   0.00939   0.00358  -0.0143   0.8085   0.0741
  -5.700  -0.4872   0.00933   0.00351  -0.0141   0.8016   0.0764
  -5.600  -0.4763   0.00928   0.00344  -0.0139   0.7952   0.0786
  -5.500  -0.4654   0.00922   0.00337  -0.0137   0.7881   0.0811
  -5.400  -0.4547   0.00916   0.00330  -0.0135   0.7814   0.0840
  -5.000  -0.4116   0.00890   0.00304  -0.0126   0.7530   0.0991
  -4.900  -0.4007   0.00884   0.00297  -0.0124   0.7461   0.1040
  -4.800  -0.3902   0.00877   0.00290  -0.0122   0.7379   0.1100
  -4.700  -0.3797   0.00869   0.00283  -0.0119   0.7298   0.1174
  -4.600  -0.3695   0.00860   0.00276  -0.0116   0.7210   0.1266
  -4.500  -0.3593   0.00849   0.00268  -0.0113   0.7127   0.1387
  -4.400  -0.3497   0.00836   0.00258  -0.0110   0.7040   0.1550
  -4.300  -0.3405   0.00816   0.00247  -0.0105   0.6961   0.1791
  -4.200  -0.3319   0.00794   0.00235  -0.0100   0.6882   0.2101
  -4.100  -0.3225   0.00774   0.00226  -0.0096   0.6814   0.2379
  -4.000  -0.3127   0.00762   0.00219  -0.0093   0.6740   0.2589
  -3.900  -0.3025   0.00750   0.00213  -0.0090   0.6673   0.2767
  -3.800  -0.2921   0.00741   0.00208  -0.0088   0.6599   0.2919
  -3.700  -0.2815   0.00734   0.00204  -0.0086   0.6531   0.3050
  -3.600  -0.2706   0.00728   0.00200  -0.0084   0.6460   0.3173
  -3.500  -0.2599   0.00723   0.00196  -0.0082   0.6390   0.3289
  -3.400  -0.2490   0.00717   0.00192  -0.0080   0.6322   0.3402
  -3.300  -0.2381   0.00712   0.00189  -0.0078   0.6251   0.3501
  -3.100  -0.2159   0.00705   0.00184  -0.0076   0.6116   0.3688
  -3.000  -0.2048   0.00702   0.00181  -0.0074   0.6051   0.3774
  -2.900  -0.1936   0.00698   0.00179  -0.0073   0.5979   0.3864
  -2.800  -0.1826   0.00696   0.00176  -0.0072   0.5912   0.3946
  -2.700  -0.1712   0.00694   0.00175  -0.0071   0.5844   0.4028
  -2.600  -0.1602   0.00691   0.00173  -0.0069   0.5776   0.4110
  -2.400  -0.1377   0.00685   0.00169  -0.0067   0.5649   0.4289
  -2.300  -0.1266   0.00683   0.00167  -0.0066   0.5586   0.4378
  -2.200  -0.1153   0.00681   0.00166  -0.0065   0.5518   0.4471
  -2.100  -0.1043   0.00680   0.00165  -0.0064   0.5449   0.4557
  -2.000  -0.0929   0.00678   0.00163  -0.0063   0.5384   0.4643
  -1.900  -0.0818   0.00676   0.00162  -0.0061   0.5315   0.4728
  -1.800  -0.0704   0.00675   0.00161  -0.0061   0.5255   0.4807
  -1.700  -0.0592   0.00673   0.00160  -0.0060   0.5191   0.4889
  -1.500  -0.0366   0.00671   0.00159  -0.0058   0.5067   0.5046
  -1.300  -0.0141   0.00670   0.00158  -0.0056   0.4938   0.5212
  -1.200  -0.0027   0.00670   0.00158  -0.0055   0.4868   0.5293
  -1.100   0.0084   0.00669   0.00158  -0.0054   0.4806   0.5384
  -1.000   0.0197   0.00668   0.00158  -0.0053   0.4743   0.5469
  -0.900   0.0308   0.00668   0.00158  -0.0052   0.4680   0.5567
  -0.800   0.0420   0.00666   0.00158  -0.0051   0.4624   0.5667
  -0.700   0.0533   0.00666   0.00158  -0.0050   0.4559   0.5759
  -0.600   0.0644   0.00665   0.00159  -0.0049   0.4499   0.5846
  -0.300   0.0987   0.00669   0.00160  -0.0047   0.4308   0.6036
  -0.200   0.1100   0.00671   0.00161  -0.0046   0.4242   0.6092
  -0.100   0.1213   0.00672   0.00162  -0.0045   0.4186   0.6154
   0.000   0.1329   0.00673   0.00163  -0.0045   0.4126   0.6211
   0.200   0.1556   0.00676   0.00165  -0.0043   0.4008   0.6328
   0.400   0.1783   0.00681   0.00167  -0.0042   0.3883   0.6447
   0.500   0.1897   0.00683   0.00169  -0.0041   0.3821   0.6510
   0.600   0.2009   0.00686   0.00171  -0.0040   0.3758   0.6568
   0.700   0.2123   0.00687   0.00172  -0.0039   0.3705   0.6633
   0.800   0.2238   0.00690   0.00174  -0.0039   0.3644   0.6693
   0.900   0.2349   0.00692   0.00176  -0.0038   0.3589   0.6754
   1.000   0.2463   0.00694   0.00178  -0.0037   0.3532   0.6819
   1.100   0.2575   0.00698   0.00180  -0.0036   0.3469   0.6878
   1.200   0.2688   0.00699   0.00182  -0.0035   0.3416   0.6943
   1.300   0.2802   0.00703   0.00184  -0.0035   0.3356   0.7006
   1.400   0.2913   0.00706   0.00187  -0.0034   0.3301   0.7068
   1.500   0.3027   0.00708   0.00189  -0.0033   0.3250   0.7134
   1.600   0.3139   0.00712   0.00192  -0.0032   0.3194   0.7194
   1.700   0.3251   0.00714   0.00195  -0.0031   0.3145   0.7259
   1.800   0.3365   0.00717   0.00197  -0.0031   0.3093   0.7323
   1.900   0.3475   0.00721   0.00201  -0.0029   0.3037   0.7384
   2.000   0.3588   0.00724   0.00204  -0.0028   0.2991   0.7451
   2.100   0.3702   0.00727   0.00207  -0.0028   0.2941   0.7511
   2.200   0.3811   0.00732   0.00210  -0.0026   0.2890   0.7575
   2.300   0.3926   0.00734   0.00213  -0.0026   0.2851   0.7639
   2.400   0.4038   0.00737   0.00217  -0.0025   0.2807   0.7699
   2.500   0.4148   0.00742   0.00221  -0.0024   0.2760   0.7764
   2.600   0.4262   0.00746   0.00224  -0.0023   0.2721   0.7823
   2.700   0.4373   0.00748   0.00228  -0.0022   0.2682   0.7885
   2.800   0.4485   0.00753   0.00232  -0.0021   0.2640   0.7948
   2.900   0.4595   0.00757   0.00236  -0.0020   0.2599   0.8006
   3.000   0.4709   0.00760   0.00240  -0.0019   0.2570   0.8068
   3.100   0.4823   0.00764   0.00243  -0.0018   0.2536   0.8127
   3.200   0.4932   0.00768   0.00248  -0.0017   0.2500   0.8184
   3.300   0.5042   0.00773   0.00253  -0.0015   0.2463   0.8245
   3.400   0.5157   0.00776   0.00257  -0.0015   0.2438   0.8300
   3.500   0.5269   0.00779   0.00261  -0.0014   0.2410   0.8357
   3.600   0.5380   0.00784   0.00266  -0.0013   0.2381   0.8414
   3.700   0.5491   0.00789   0.00271  -0.0011   0.2350   0.8467
   3.800   0.5601   0.00793   0.00276  -0.0010   0.2324   0.8522
   3.900   0.5715   0.00797   0.00280  -0.0009   0.2303   0.8577
   4.000   0.5828   0.00801   0.00285  -0.0008   0.2279   0.8626
   4.100   0.5938   0.00805   0.00290  -0.0007   0.2255   0.8678
   4.200   0.6048   0.00811   0.00295  -0.0006   0.2229   0.8731
   4.300   0.6157   0.00817   0.00301  -0.0004   0.2201   0.8778
   4.400   0.6269   0.00820   0.00306  -0.0003   0.2186   0.8826
   4.500   0.6382   0.00824   0.00311  -0.0002   0.2168   0.8876
   4.600   0.6494   0.00829   0.00316  -0.0001   0.2148   0.8921
   4.700   0.6603   0.00834   0.00322   0.0001   0.2127   0.8965
   4.800   0.6712   0.00840   0.00328   0.0002   0.2106   0.9012
   4.900   0.6821   0.00847   0.00334   0.0004   0.2082   0.9056
   5.000   0.6930   0.00852   0.00340   0.0006   0.2065   0.9096
   5.100   0.7041   0.00856   0.00345   0.0007   0.2051   0.9138
   5.200   0.7152   0.00860   0.00350   0.0008   0.2035   0.9181
   5.300   0.7262   0.00866   0.00356   0.0010   0.2017   0.9218
   5.400   0.7369   0.00872   0.00362   0.0012   0.1998   0.9255
   5.500   0.7476   0.00879   0.00369   0.0014   0.1979   0.9295
   5.600   0.7581   0.00887   0.00376   0.0016   0.1957   0.9335
   5.700   0.7689   0.00893   0.00382   0.0018   0.1942   0.9367
   5.800   0.7798   0.00897   0.00388   0.0020   0.1930   0.9400
   5.900   0.7906   0.00902   0.00394   0.0022   0.1915   0.9437
   6.000   0.8013   0.00908   0.00400   0.0024   0.1899   0.9473
   6.100   0.8119   0.00915   0.00407   0.0026   0.1882   0.9501
   6.200   0.8224   0.00923   0.00414   0.0029   0.1865   0.9531
   6.300   0.8326   0.00931   0.00422   0.0032   0.1845   0.9565
   6.400   0.8425   0.00940   0.00429   0.0035   0.1827   0.9600
   6.500   0.8539   0.00945   0.00436   0.0036   0.1816   0.9622
   6.600   0.8651   0.00951   0.00442   0.0037   0.1803   0.9647
   6.700   0.8758   0.00957   0.00449   0.0039   0.1789   0.9675
   6.800   0.8859   0.00964   0.00456   0.0043   0.1773   0.9707
   6.900   0.8971   0.00973   0.00463   0.0043   0.1756   0.9728
   7.000   0.9090   0.00983   0.00472   0.0043   0.1737   0.9745
   7.100   0.9205   0.00994   0.00482   0.0042   0.1716   0.9765
   7.200   0.9325   0.01000   0.00489   0.0042   0.1705   0.9785
   7.300   0.9440   0.01007   0.00496   0.0042   0.1692   0.9808
   7.400   0.9555   0.01014   0.00504   0.0042   0.1677   0.9828
   7.500   0.9691   0.01023   0.00512   0.0037   0.1660   0.9836
   7.600   0.9826   0.01034   0.00522   0.0033   0.1642   0.9845
   7.700   0.9960   0.01046   0.00532   0.0028   0.1622   0.9854
   7.800   1.0095   0.01058   0.00543   0.0024   0.1602   0.9863
   7.900   1.0236   0.01065   0.00551   0.0018   0.1590   0.9870
   8.000   1.0376   0.01074   0.00560   0.0013   0.1575   0.9877
   8.100   1.0515   0.01083   0.00569   0.0008   0.1559   0.9885
   8.200   1.0649   0.01094   0.00579   0.0003   0.1541   0.9893
   8.300   1.0780   0.01107   0.00590  -0.0001   0.1522   0.9903
   8.400   1.0904   0.01120   0.00602  -0.0003   0.1501   0.9914
   8.500   1.1033   0.01129   0.00611  -0.0006   0.1489   0.9923
   8.600   1.1177   0.01138   0.00620  -0.0013   0.1474   0.9926
   8.700   1.1319   0.01148   0.00630  -0.0019   0.1457   0.9930
   8.800   1.1458   0.01160   0.00641  -0.0024   0.1439   0.9934
   8.900   1.1594   0.01173   0.00653  -0.0030   0.1419   0.9939
   9.000   1.1729   0.01188   0.00666  -0.0035   0.1398   0.9944
   9.100   1.1870   0.01197   0.00676  -0.0040   0.1385   0.9948
   9.200   1.2008   0.01207   0.00687  -0.0045   0.1369   0.9954
   9.300   1.2143   0.01219   0.00698  -0.0050   0.1351   0.9959
   9.400   1.2275   0.01232   0.00710  -0.0055   0.1333   0.9965
   9.500   1.2405   0.01248   0.00725  -0.0059   0.1313   0.9971
   9.600   1.2538   0.01260   0.00737  -0.0063   0.1297   0.9977
   9.700   1.2672   0.01271   0.00748  -0.0068   0.1283   0.9983
   9.800   1.2804   0.01283   0.00760  -0.0072   0.1266   0.9988
   9.900   1.2934   0.01298   0.00774  -0.0076   0.1248   0.9993
  10.000   1.3062   0.01315   0.00790  -0.0080   0.1228   0.9998
  10.100   1.3137   0.01328   0.00803  -0.0073   0.1212   1.0000
  10.200   1.3184   0.01335   0.00811  -0.0060   0.1203   1.0000
  10.300   1.3227   0.01343   0.00819  -0.0046   0.1192   1.0000
  10.400   1.3267   0.01352   0.00829  -0.0032   0.1180   1.0000
  10.500   1.3305   0.01362   0.00839  -0.0017   0.1167   1.0000
  10.600   1.3340   0.01373   0.00850  -0.0002   0.1154   1.0000
  10.700   1.3361   0.01385   0.00861   0.0016   0.1141   1.0000
  10.800   1.3368   0.01396   0.00872   0.0036   0.1129   1.0000
  10.900   1.3400   0.01404   0.00881   0.0052   0.1120   1.0000
  11.000   1.3439   0.01414   0.00892   0.0066   0.1109   1.0000
  11.100   1.3486   0.01425   0.00904   0.0078   0.1096   1.0000
  11.200   1.3538   0.01440   0.00918   0.0089   0.1083   1.0000
  11.300   1.3591   0.01456   0.00934   0.0100   0.1068   1.0000
  11.400   1.3645   0.01475   0.00953   0.0110   0.1053   1.0000
  11.500   1.3713   0.01491   0.00969   0.0117   0.1041   1.0000
  11.600   1.3785   0.01505   0.00985   0.0124   0.1029   1.0000
  11.700   1.3853   0.01522   0.01002   0.0131   0.1015   1.0000
  11.800   1.3920   0.01542   0.01021   0.0138   0.1001   1.0000
  11.900   1.3981   0.01564   0.01043   0.0146   0.0986   1.0000
  12.000   1.4041   0.01587   0.01066   0.0153   0.0971   1.0000
  12.100   1.4117   0.01604   0.01085   0.0159   0.0961   1.0000
  12.200   1.4188   0.01624   0.01105   0.0165   0.0948   1.0000
  12.300   1.4255   0.01646   0.01127   0.0171   0.0934   1.0000
  12.400   1.4317   0.01671   0.01152   0.0178   0.0920   1.0000
  12.500   1.4374   0.01699   0.01180   0.0185   0.0906   1.0000
  12.600   1.4441   0.01723   0.01205   0.0191   0.0894   1.0000
  12.700   1.4511   0.01745   0.01229   0.0196   0.0882   1.0000
  12.800   1.4576   0.01771   0.01255   0.0202   0.0869   1.0000
  12.900   1.4635   0.01800   0.01284   0.0208   0.0855   1.0000
  13.000   1.4689   0.01833   0.01317   0.0214   0.0842   1.0000
  13.100   1.4746   0.01864   0.01349   0.0220   0.0830   1.0000
  13.200   1.4813   0.01891   0.01377   0.0225   0.0818   1.0000
  13.300   1.4873   0.01921   0.01409   0.0231   0.0806   1.0000
  13.400   1.4929   0.01956   0.01443   0.0236   0.0794   1.0000
  13.500   1.4978   0.01994   0.01482   0.0242   0.0781   1.0000
  13.600   1.5024   0.02035   0.01523   0.0248   0.0769   1.0000
  13.700   1.5086   0.02067   0.01557   0.0253   0.0759   1.0000
  13.800   1.5142   0.02103   0.01595   0.0257   0.0747   1.0000
  13.900   1.5192   0.02144   0.01636   0.0262   0.0736   1.0000
  14.000   1.5236   0.02190   0.01682   0.0268   0.0724   1.0000
  14.100   1.5273   0.02240   0.01733   0.0273   0.0712   1.0000
  14.200   1.5326   0.02281   0.01776   0.0277   0.0703   1.0000
  14.300   1.5377   0.02325   0.01822   0.0281   0.0693   1.0000
  14.400   1.5422   0.02373   0.01871   0.0286   0.0682   1.0000
  14.500   1.5459   0.02427   0.01926   0.0290   0.0671   1.0000
  14.600   1.5490   0.02487   0.01987   0.0295   0.0661   1.0000
  14.700   1.5527   0.02544   0.02045   0.0298   0.0651   1.0000
  14.800   1.5572   0.02596   0.02099   0.0302   0.0642   1.0000
  14.900   1.5610   0.02654   0.02159   0.0305   0.0633   1.0000
  15.000   1.5642   0.02717   0.02224   0.0308   0.0623   1.0000
  15.100   1.5667   0.02787   0.02295   0.0312   0.0614   1.0000
  15.200   1.5684   0.02865   0.02374   0.0315   0.0605   1.0000
  15.300   1.5718   0.02930   0.02441   0.0317   0.0597   1.0000
  15.400   1.5750   0.02998   0.02511   0.0319   0.0589   1.0000
  15.500   1.5775   0.03072   0.02587   0.0322   0.0580   1.0000
  15.600   1.5793   0.03154   0.02672   0.0323   0.0572   1.0000
  15.700   1.5804   0.03244   0.02762   0.0325   0.0564   1.0000
  15.800   1.5809   0.03340   0.02860   0.0327   0.0556   1.0000
  15.900   1.5826   0.03426   0.02949   0.0328   0.0550   1.0000
  16.000   1.5846   0.03510   0.03036   0.0329   0.0543   1.0000
  16.100   1.5859   0.03603   0.03132   0.0329   0.0536   1.0000
  16.200   1.5863   0.03705   0.03236   0.0330   0.0529   1.0000
  16.300   1.5862   0.03814   0.03347   0.0330   0.0522   1.0000
  16.400   1.5852   0.03933   0.03468   0.0329   0.0516   1.0000
  16.500   1.5834   0.04061   0.03599   0.0329   0.0510   1.0000
  16.600   1.5838   0.04169   0.03709   0.0328   0.0504   1.0000
  16.700   1.5838   0.04282   0.03826   0.0327   0.0499   1.0000
  16.800   1.5831   0.04404   0.03951   0.0325   0.0493   1.0000
  16.900   1.5817   0.04534   0.04084   0.0323   0.0487   1.0000
  17.000   1.5794   0.04676   0.04229   0.0321   0.0482   1.0000
  17.100   1.5764   0.04828   0.04383   0.0318   0.0476   1.0000
  17.200   1.5727   0.04986   0.04545   0.0315   0.0472   1.0000
  17.300   1.5683   0.05154   0.04716   0.0311   0.0467   1.0000
  17.400   1.5657   0.05305   0.04870   0.0308   0.0463   1.0000
  17.500   1.5632   0.05456   0.05025   0.0304   0.0459   1.0000
  17.600   1.5601   0.05615   0.05187   0.0300   0.0455   1.0000
  17.700   1.5559   0.05788   0.05364   0.0296   0.0451   1.0000
  17.800   1.5511   0.05968   0.05548   0.0291   0.0447   1.0000
  17.900   1.5458   0.06155   0.05739   0.0286   0.0443   1.0000
  18.000   1.5395   0.06356   0.05943   0.0280   0.0439   1.0000
  18.100   1.5325   0.06568   0.06159   0.0273   0.0436   1.0000
  18.200   1.5251   0.06787   0.06381   0.0266   0.0433   1.0000
  18.300   1.5171   0.07012   0.06610   0.0259   0.0430   1.0000
  18.400   1.5081   0.07252   0.06854   0.0251   0.0427   1.0000
  18.500   1.5012   0.07468   0.07074   0.0243   0.0424   1.0000
  18.600   1.4951   0.07676   0.07287   0.0236   0.0421   1.0000
  18.700   1.4876   0.07902   0.07517   0.0228   0.0419   1.0000
  18.800   1.4796   0.08137   0.07756   0.0220   0.0416   1.0000
  18.900   1.4718   0.08368   0.07991   0.0211   0.0413   1.0000
  19.000   1.4626   0.08620   0.08248   0.0202   0.0411   1.0000
  19.100   1.4534   0.08875   0.08507   0.0192   0.0408   1.0000
  19.200   1.4444   0.09128   0.08763   0.0182   0.0405   1.0000
  19.300   1.4340   0.09402   0.09042   0.0171   0.0403   1.0000
  19.400   1.4239   0.09672   0.09316   0.0160   0.0401   1.0000
  19.500   1.4139   0.09943   0.09591   0.0148   0.0398   1.0000
  19.600   1.4029   0.10232   0.09884   0.0136   0.0396   1.0000
  19.700   1.3929   0.10508   0.10163   0.0123   0.0394   1.0000
  19.800   1.3819   0.10799   0.10459   0.0110   0.0392   1.0000
  20.000   1.3646   0.11322   0.10989   0.0086   0.0387   1.0000
  20.100   1.3579   0.11557   0.11228   0.0075   0.0384   1.0000
  20.200   1.3506   0.11805   0.11479   0.0063   0.0382   1.0000
  20.300   1.3445   0.12034   0.11711   0.0051   0.0379   1.0000
  20.400   1.3365   0.12295   0.11975   0.0038   0.0376   1.0000
  20.500   1.3303   0.12526   0.12209   0.0026   0.0373   1.0000
  20.600   1.3226   0.12785   0.12471   0.0012   0.0370   1.0000
  20.700   1.3159   0.13028   0.12718  -0.0001   0.0367   1.0000
  20.800   1.3095   0.13270   0.12962  -0.0014   0.0364   1.0000
  20.900   1.3018   0.13535   0.13229  -0.0029   0.0361   1.0000
  21.000   1.2958   0.13774   0.13470  -0.0043   0.0358   1.0000
  21.100   1.2882   0.14039   0.13738  -0.0059   0.0355   1.0000
  21.200   1.2843   0.14247   0.13948  -0.0071   0.0353   1.0000
  21.300   1.2821   0.14427   0.14131  -0.0082   0.0350   1.0000
  21.400   1.2793   0.14617   0.14324  -0.0093   0.0346   1.0000
  21.500   1.2748   0.14838   0.14547  -0.0107   0.0343   1.0000
  21.600   1.2717   0.15035   0.14746  -0.0120   0.0340   1.0000
  21.700   1.2689   0.15229   0.14942  -0.0132   0.0337   1.0000
  21.800   1.2648   0.15447   0.15162  -0.0146   0.0334   1.0000
  21.900   1.2606   0.15667   0.15383  -0.0160   0.0331   1.0000
  22.000   1.2571   0.15873   0.15592  -0.0174   0.0327   1.0000
  22.100   1.2537   0.16082   0.15801  -0.0188   0.0324   1.0000
  22.200   1.2495   0.16303   0.16025  -0.0203   0.0321   1.0000
  22.300   1.2487   0.16467   0.16191  -0.0215   0.0318   1.0000
  22.400   1.2481   0.16627   0.16352  -0.0226   0.0315   1.0000
  22.500   1.2473   0.16790   0.16517  -0.0237   0.0312   1.0000
  22.600   1.2458   0.16967   0.16696  -0.0250   0.0309   1.0000
  22.700   1.2430   0.17167   0.16898  -0.0264   0.0306   1.0000
  22.800   1.2413   0.17350   0.17082  -0.0277   0.0302   1.0000
  22.900   1.2397   0.17530   0.17263  -0.0290   0.0299   1.0000
  23.000   1.2378   0.17716   0.17450  -0.0304   0.0296   1.0000
  23.100   1.2343   0.17933   0.17668  -0.0320   0.0293   1.0000
  23.200   1.2335   0.18099   0.17836  -0.0333   0.0290   1.0000
  23.300   1.2339   0.18246   0.17984  -0.0344   0.0287   1.0000
  23.400   1.2343   0.18393   0.18133  -0.0355   0.0284   1.0000
  23.500   1.2343   0.18546   0.18288  -0.0367   0.0281   1.0000
  23.600   1.2332   0.18720   0.18464  -0.0380   0.0279   1.0000
  23.700   1.2321   0.18895   0.18641  -0.0394   0.0276   1.0000
  23.800   1.2315   0.19061   0.18808  -0.0407   0.0273   1.0000
  23.900   1.2308   0.19226   0.18973  -0.0420   0.0270   1.0000
  24.000   1.2301   0.19395   0.19142  -0.0433   0.0267   1.0000
  24.100   1.2287   0.19576   0.19324  -0.0448   0.0265   1.0000
  24.200   1.2282   0.19736   0.19486  -0.0461   0.0262   1.0000
  24.300   1.2288   0.19882   0.19634  -0.0473   0.0260   1.0000
  24.400   1.2294   0.20024   0.19777  -0.0484   0.0257   1.0000
  24.500   1.2300   0.20167   0.19922  -0.0496   0.0254   1.0000
  24.600   1.2305   0.20312   0.20069  -0.0508   0.0252   1.0000
  24.700   1.2301   0.20476   0.20234  -0.0522   0.0249   1.0000
  24.800   1.2295   0.20643   0.20401  -0.0536   0.0246   1.0000
  24.900   1.2294   0.20801   0.20560  -0.0549   0.0244   1.0000
  25.000   1.2294   0.20956   0.20716  -0.0562   0.0241   1.0000
  25.100   1.2296   0.21108   0.20867  -0.0575   0.0239   1.0000
  25.200   1.2303   0.21248   0.21008  -0.0587   0.0236   1.0000
  25.300   1.2305   0.21402   0.21165  -0.0601   0.0234   1.0000
  25.400   1.2307   0.21555   0.21319  -0.0614   0.0232   1.0000
  25.500   1.2313   0.21699   0.21466  -0.0626   0.0229   1.0000
  25.600   1.2321   0.21841   0.21608  -0.0639   0.0227   1.0000
  25.700   1.2329   0.21981   0.21750  -0.0651   0.0224   1.0000
  25.800   1.2337   0.22122   0.21891  -0.0664   0.0222   1.0000
  25.900   1.2338   0.22277   0.22047  -0.0677   0.0220   1.0000
  26.000   1.2338   0.22432   0.22203  -0.0691   0.0218   1.0000
  26.100   1.2344   0.22576   0.22347  -0.0704   0.0216   1.0000
  26.200   1.2356   0.22708   0.22478  -0.0716   0.0213   1.0000
  26.300   1.2368   0.22840   0.22611  -0.0729   0.0211   1.0000
  26.400   1.2377   0.22977   0.22750  -0.0741   0.0209   1.0000
  26.500   1.2386   0.23115   0.22890  -0.0754   0.0207   1.0000
  26.600   1.2389   0.23268   0.23046  -0.0768   0.0205   1.0000
  26.700   1.2392   0.23418   0.23196  -0.0781   0.0203   1.0000
  26.800   1.2399   0.23559   0.23339  -0.0794   0.0201   1.0000
  26.900   1.2408   0.23697   0.23478  -0.0807   0.0199   1.0000
  27.000   1.2418   0.23830   0.23612  -0.0820   0.0197   1.0000
  27.100   1.2429   0.23962   0.23744  -0.0833   0.0195   1.0000
  27.200   1.2439   0.24097   0.23878  -0.0845   0.0193   1.0000
  27.300   1.2452   0.24224   0.24005  -0.0858   0.0191   1.0000
  27.400   1.2468   0.24343   0.24124  -0.0870   0.0189   1.0000
  27.500   1.2469   0.24499   0.24283  -0.0884   0.0187   1.0000
  27.600   1.2474   0.24644   0.24430  -0.0898   0.0185   1.0000
  27.700   1.2483   0.24782   0.24570  -0.0911   0.0183   1.0000
  27.800   1.2492   0.24919   0.24708  -0.0924   0.0182   1.0000
  27.900   1.2496   0.25067   0.24858  -0.0938   0.0180   1.0000
  28.000   1.2501   0.25213   0.25005  -0.0952   0.0178   1.0000
  28.100   1.2510   0.25350   0.25143  -0.0965   0.0176   1.0000
  28.200   1.2522   0.25479   0.25273  -0.0978   0.0175   1.0000
  28.300   1.2537   0.25601   0.25395  -0.0991   0.0173   1.0000
  28.400   1.2554   0.25716   0.25509  -0.1003   0.0171   1.0000
  28.500   1.2575   0.25821   0.25613  -0.1014   0.0170   1.0000
  28.600   1.2603   0.25908   0.25699  -0.1024   0.0168   1.0000
  28.700   1.2608   0.26055   0.25849  -0.1038   0.0167   1.0000
  28.800   1.2601   0.26232   0.26029  -0.1055   0.0165   1.0000
  28.900   1.2601   0.26390   0.26190  -0.1070   0.0163   1.0000
  29.000   1.2605   0.26539   0.26340  -0.1084   0.0161   1.0000
  29.100   1.2612   0.26681   0.26483  -0.1098   0.0160   1.0000
  29.200   1.2618   0.26825   0.26629  -0.1112   0.0158   1.0000
  29.300   1.2621   0.26973   0.26778  -0.1127   0.0156   1.0000
  29.400   1.2630   0.27109   0.26915  -0.1141   0.0155   1.0000
  29.500   1.2643   0.27234   0.27040  -0.1154   0.0153   1.0000
  29.600   1.2661   0.27346   0.27152  -0.1166   0.0152   1.0000
  29.700   1.2683   0.27447   0.27253  -0.1177   0.0150   1.0000
  29.800   1.2709   0.27534   0.27339  -0.1188   0.0149   1.0000
  29.900   1.2742   0.27603   0.27407  -0.1197   0.0148   1.0000
  30.000   1.2734   0.27781   0.27588  -0.1214   0.0146   1.0000
