  
       XFOIL         Version 6.97
  
 Calculated polar for: NACA 642-015 AIRFOIL                            
  
 1 1 Reynolds number fixed          Mach number fixed         
  
 xtrf =   1.000 (top)        1.000 (bottom)  
 Mach =   0.000     Re =     0.400 e 6     Ncrit =   9.000
  
   alpha    CL        CD       CDp       CM     Top_Xtr  Bot_Xtr
  ------ -------- --------- --------- -------- -------- --------
 -15.000  -0.9991   0.07164   0.06788  -0.0303   1.0000   0.0241
 -14.750  -1.0221   0.06578   0.06180  -0.0324   1.0000   0.0240
 -14.500  -1.0415   0.06072   0.05651  -0.0337   1.0000   0.0240
 -14.250  -1.0576   0.05630   0.05187  -0.0344   1.0000   0.0240
 -14.000  -1.0703   0.05241   0.04776  -0.0345   1.0000   0.0241
 -13.750  -1.0796   0.04895   0.04407  -0.0341   1.0000   0.0241
 -13.500  -1.0853   0.04589   0.04080  -0.0335   1.0000   0.0242
 -13.250  -1.0874   0.04319   0.03788  -0.0326   1.0000   0.0244
 -13.000  -1.0863   0.04077   0.03526  -0.0316   1.0000   0.0246
 -12.750  -1.0826   0.03861   0.03289  -0.0305   1.0000   0.0248
 -12.500  -1.0772   0.03671   0.03079  -0.0294   1.0000   0.0251
 -12.250  -1.0717   0.03512   0.02899  -0.0280   1.0000   0.0254
 -12.000  -1.0651   0.03365   0.02733  -0.0266   1.0000   0.0257
 -11.750  -1.0365   0.03158   0.02526  -0.0270   1.0000   0.0263
 -11.500  -1.0184   0.03034   0.02400  -0.0265   1.0000   0.0268
 -11.250  -1.0014   0.02920   0.02279  -0.0258   1.0000   0.0273
 -11.000  -0.9841   0.02810   0.02164  -0.0251   1.0000   0.0278
 -10.750  -0.9664   0.02703   0.02051  -0.0243   1.0000   0.0284
 -10.500  -0.9489   0.02601   0.01942  -0.0236   1.0000   0.0290
 -10.250  -0.9320   0.02511   0.01841  -0.0227   1.0000   0.0297
 -10.000  -0.9143   0.02392   0.01720  -0.0218   1.0000   0.0305
  -9.750  -0.8987   0.02288   0.01620  -0.0209   1.0000   0.0314
  -9.500  -0.8831   0.02202   0.01534  -0.0199   1.0000   0.0324
  -9.250  -0.8677   0.02119   0.01448  -0.0188   1.0000   0.0334
  -9.000  -0.8520   0.02042   0.01367  -0.0177   1.0000   0.0345
  -8.750  -0.8388   0.01954   0.01276  -0.0163   1.0000   0.0355
  -8.500  -0.8132   0.01846   0.01171  -0.0176   0.9683   0.0374
  -8.250  -0.7871   0.01780   0.01098  -0.0182   0.9450   0.0395
  -8.000  -0.7732   0.01730   0.01037  -0.0161   0.9239   0.0413
  -7.750  -0.7624   0.01665   0.00969  -0.0135   0.9066   0.0436
  -7.500  -0.7461   0.01621   0.00918  -0.0117   0.8930   0.0462
  -7.250  -0.7307   0.01563   0.00853  -0.0098   0.8808   0.0493
  -7.000  -0.7122   0.01517   0.00803  -0.0084   0.8701   0.0533
  -6.500  -0.6740   0.01410   0.00693  -0.0059   0.8499   0.0676
  -6.250  -0.6548   0.01347   0.00638  -0.0047   0.8405   0.0864
  -6.000  -0.6378   0.01261   0.00576  -0.0034   0.8318   0.1352
  -5.750  -0.6223   0.01152   0.00509  -0.0020   0.8228   0.2214
  -5.500  -0.6082   0.01022   0.00438  -0.0005   0.8138   0.3437
  -5.250  -0.5893   0.00951   0.00409   0.0007   0.8061   0.4510
  -5.000  -0.5637   0.00934   0.00397   0.0011   0.7981   0.4881
  -4.750  -0.5370   0.00926   0.00386   0.0013   0.7906   0.5111
  -4.500  -0.5100   0.00921   0.00377   0.0015   0.7834   0.5281
  -4.250  -0.4824   0.00918   0.00369   0.0016   0.7757   0.5418
  -4.000  -0.4549   0.00916   0.00360   0.0017   0.7690   0.5534
  -3.750  -0.4270   0.00913   0.00355   0.0017   0.7611   0.5652
  -3.500  -0.3996   0.00916   0.00353   0.0019   0.7547   0.5791
  -3.250  -0.3717   0.00918   0.00353   0.0019   0.7471   0.5913
  -3.000  -0.3441   0.00923   0.00354   0.0021   0.7410   0.6035
  -2.750  -0.3160   0.00926   0.00355   0.0021   0.7337   0.6143
  -2.500  -0.2878   0.00928   0.00351   0.0021   0.7279   0.6216
  -2.250  -0.2590   0.00922   0.00341   0.0019   0.7209   0.6261
  -2.000  -0.2305   0.00919   0.00335   0.0018   0.7153   0.6306
  -1.750  -0.2017   0.00917   0.00328   0.0015   0.7083   0.6364
  -1.500  -0.1731   0.00915   0.00323   0.0014   0.7029   0.6411
  -1.250  -0.1442   0.00911   0.00319   0.0011   0.6964   0.6459
  -1.000  -0.1154   0.00910   0.00312   0.0009   0.6911   0.6509
  -0.750  -0.0866   0.00907   0.00311   0.0007   0.6855   0.6549
  -0.500  -0.0577   0.00906   0.00308   0.0005   0.6800   0.6598
  -0.250  -0.0289   0.00906   0.00304   0.0002   0.6752   0.6647
   0.000   0.0000   0.00904   0.00306   0.0000   0.6694   0.6694
   0.250   0.0289   0.00906   0.00304  -0.0002   0.6647   0.6752
   0.500   0.0577   0.00906   0.00308  -0.0005   0.6598   0.6800
   0.750   0.0866   0.00907   0.00311  -0.0007   0.6549   0.6855
   1.000   0.1154   0.00910   0.00312  -0.0009   0.6509   0.6911
   1.250   0.1442   0.00911   0.00319  -0.0011   0.6459   0.6964
   1.500   0.1731   0.00915   0.00323  -0.0014   0.6411   0.7029
   1.750   0.2017   0.00917   0.00328  -0.0015   0.6364   0.7083
   2.000   0.2305   0.00919   0.00334  -0.0018   0.6305   0.7152
   2.250   0.2590   0.00922   0.00341  -0.0019   0.6261   0.7209
   2.500   0.2878   0.00928   0.00351  -0.0021   0.6216   0.7279
   2.750   0.3160   0.00926   0.00355  -0.0021   0.6144   0.7337
   3.000   0.3441   0.00923   0.00354  -0.0021   0.6035   0.7410
   3.250   0.3717   0.00918   0.00353  -0.0019   0.5913   0.7471
   3.500   0.3996   0.00916   0.00353  -0.0019   0.5791   0.7547
   3.750   0.4270   0.00913   0.00355  -0.0017   0.5652   0.7611
   4.000   0.4549   0.00916   0.00360  -0.0017   0.5534   0.7690
   4.250   0.4824   0.00918   0.00369  -0.0016   0.5418   0.7757
   4.500   0.5100   0.00921   0.00377  -0.0015   0.5282   0.7834
   4.750   0.5370   0.00926   0.00386  -0.0013   0.5111   0.7906
   5.000   0.5637   0.00934   0.00397  -0.0011   0.4881   0.7981
   5.250   0.5893   0.00951   0.00409  -0.0007   0.4510   0.8061
   5.500   0.6082   0.01022   0.00438   0.0005   0.3437   0.8138
   5.750   0.6223   0.01152   0.00509   0.0020   0.2214   0.8229
   6.000   0.6378   0.01261   0.00576   0.0034   0.1352   0.8318
   6.250   0.6548   0.01347   0.00638   0.0047   0.0864   0.8405
   6.500   0.6740   0.01410   0.00693   0.0059   0.0676   0.8499
   7.000   0.7122   0.01517   0.00803   0.0084   0.0533   0.8701
   7.250   0.7307   0.01563   0.00853   0.0098   0.0493   0.8808
   7.500   0.7462   0.01621   0.00918   0.0117   0.0462   0.8930
   7.750   0.7624   0.01665   0.00969   0.0135   0.0436   0.9066
   8.000   0.7732   0.01730   0.01037   0.0161   0.0413   0.9239
   8.250   0.7872   0.01780   0.01098   0.0182   0.0395   0.9451
   8.500   0.8134   0.01846   0.01171   0.0176   0.0373   0.9683
   8.750   0.8390   0.01954   0.01276   0.0163   0.0355   1.0000
   9.000   0.8522   0.02042   0.01367   0.0177   0.0345   1.0000
   9.250   0.8679   0.02119   0.01448   0.0188   0.0334   1.0000
   9.500   0.8834   0.02202   0.01534   0.0198   0.0324   1.0000
   9.750   0.8990   0.02288   0.01619   0.0208   0.0314   1.0000
  10.000   0.9147   0.02392   0.01720   0.0218   0.0305   1.0000
  10.250   0.9323   0.02510   0.01841   0.0226   0.0297   1.0000
  10.500   0.9492   0.02601   0.01942   0.0235   0.0290   1.0000
  10.750   0.9668   0.02703   0.02051   0.0243   0.0284   1.0000
  11.000   0.9845   0.02809   0.02163   0.0250   0.0278   1.0000
  11.250   1.0018   0.02919   0.02279   0.0257   0.0273   1.0000
  11.500   1.0189   0.03034   0.02399   0.0264   0.0268   1.0000
  11.750   1.0370   0.03158   0.02526   0.0270   0.0263   1.0000
  12.000   1.0662   0.03371   0.02739   0.0265   0.0257   1.0000
  12.250   1.0721   0.03512   0.02900   0.0280   0.0254   1.0000
  12.500   1.0776   0.03671   0.03079   0.0293   0.0251   1.0000
  12.750   1.0831   0.03861   0.03289   0.0305   0.0248   1.0000
  13.000   1.0868   0.04078   0.03526   0.0316   0.0246   1.0000
  13.250   1.0879   0.04319   0.03788   0.0325   0.0244   1.0000
  13.500   1.0858   0.04590   0.04080   0.0334   0.0242   1.0000
  13.750   1.0802   0.04895   0.04408   0.0341   0.0241   1.0000
  14.000   1.0708   0.05242   0.04777   0.0344   0.0241   1.0000
  14.250   1.0581   0.05631   0.05188   0.0343   0.0240   1.0000
  14.500   1.0421   0.06073   0.05652   0.0336   0.0240   1.0000
  14.750   1.0227   0.06579   0.06181   0.0323   0.0240   1.0000
  15.000   0.9996   0.07166   0.06791   0.0302   0.0240   1.0000
