  
       XFOIL         Version 6.97
  
 Calculated polar for: NACA 23017 Airfoil                              
  
 1 1 Reynolds number fixed          Mach number fixed         
  
 xtrf =   1.000 (top)        1.000 (bottom)  
 Mach =   0.200     Re =     3.000 e 6     Ncrit =   9.000
  
   alpha    CL        CD       CDp       CM     Top_Xtr  Bot_Xtr
  ------ -------- --------- --------- -------- -------- --------
 -12.000  -1.1841   0.01365   0.00875  -0.0257   0.9952   0.0267
 -11.900  -1.1720   0.01346   0.00857  -0.0259   0.9947   0.0270
 -11.800  -1.1595   0.01329   0.00840  -0.0261   0.9942   0.0273
 -11.700  -1.1469   0.01314   0.00824  -0.0263   0.9937   0.0276
 -11.600  -1.1342   0.01299   0.00809  -0.0265   0.9932   0.0279
 -11.500  -1.1213   0.01284   0.00795  -0.0267   0.9926   0.0282
 -11.400  -1.1098   0.01271   0.00781  -0.0267   0.9913   0.0284
 -11.300  -1.0990   0.01259   0.00768  -0.0264   0.9894   0.0286
 -11.200  -1.0880   0.01247   0.00756  -0.0263   0.9876   0.0288
 -11.100  -1.0766   0.01235   0.00744  -0.0262   0.9858   0.0290
 -11.000  -1.0648   0.01224   0.00732  -0.0261   0.9842   0.0292
 -10.900  -1.0538   0.01209   0.00717  -0.0260   0.9825   0.0295
 -10.800  -1.0451   0.01196   0.00703  -0.0253   0.9793   0.0299
 -10.700  -1.0356   0.01183   0.00691  -0.0249   0.9764   0.0302
 -10.600  -1.0257   0.01172   0.00679  -0.0244   0.9737   0.0305
 -10.500  -1.0160   0.01161   0.00667  -0.0240   0.9710   0.0308
 -10.400  -1.0064   0.01150   0.00657  -0.0235   0.9677   0.0311
 -10.300  -0.9968   0.01141   0.00646  -0.0230   0.9643   0.0314
 -10.200  -0.9871   0.01132   0.00636  -0.0225   0.9611   0.0317
 -10.100  -0.9770   0.01123   0.00626  -0.0221   0.9580   0.0320
 -10.000  -0.9669   0.01114   0.00617  -0.0217   0.9544   0.0322
  -9.900  -0.9571   0.01105   0.00607  -0.0212   0.9507   0.0325
  -9.800  -0.9476   0.01094   0.00594  -0.0207   0.9472   0.0330
  -9.700  -0.9375   0.01083   0.00583  -0.0204   0.9436   0.0334
  -9.600  -0.9274   0.01073   0.00573  -0.0199   0.9395   0.0338
  -9.500  -0.9174   0.01065   0.00564  -0.0195   0.9355   0.0342
  -9.400  -0.9069   0.01056   0.00554  -0.0192   0.9319   0.0346
  -9.300  -0.8964   0.01048   0.00545  -0.0189   0.9277   0.0349
  -9.200  -0.8860   0.01041   0.00536  -0.0186   0.9233   0.0353
  -9.100  -0.8754   0.01034   0.00528  -0.0183   0.9193   0.0355
  -9.000  -0.8647   0.01025   0.00519  -0.0180   0.9149   0.0359
  -8.900  -0.8545   0.01016   0.00508  -0.0176   0.9101   0.0365
  -8.800  -0.8441   0.01008   0.00499  -0.0173   0.9056   0.0370
  -8.700  -0.8333   0.01000   0.00490  -0.0170   0.9011   0.0375
  -8.600  -0.8226   0.00992   0.00482  -0.0168   0.8959   0.0380
  -8.500  -0.8119   0.00986   0.00474  -0.0165   0.8910   0.0385
  -8.400  -0.8009   0.00980   0.00466  -0.0163   0.8862   0.0389
  -8.200  -0.7794   0.00966   0.00449  -0.0158   0.8755   0.0400
  -8.100  -0.7685   0.00958   0.00441  -0.0155   0.8703   0.0406
  -8.000  -0.7577   0.00951   0.00433  -0.0153   0.8645   0.0412
  -7.900  -0.7468   0.00945   0.00426  -0.0151   0.8591   0.0418
  -7.800  -0.7357   0.00939   0.00419  -0.0149   0.8534   0.0423
  -7.700  -0.7247   0.00935   0.00412  -0.0146   0.8473   0.0428
  -7.600  -0.7137   0.00929   0.00404  -0.0145   0.8418   0.0434
  -7.500  -0.7028   0.00922   0.00396  -0.0142   0.8355   0.0443
  -7.400  -0.6919   0.00916   0.00389  -0.0140   0.8294   0.0451
  -7.300  -0.6808   0.00910   0.00383  -0.0138   0.8235   0.0458
  -7.200  -0.6697   0.00906   0.00376  -0.0137   0.8168   0.0465
  -7.100  -0.6584   0.00901   0.00370  -0.0135   0.8108   0.0470
  -7.000  -0.6474   0.00895   0.00363  -0.0133   0.8042   0.0480
  -6.900  -0.6365   0.00890   0.00356  -0.0131   0.7976   0.0489
  -6.800  -0.6252   0.00884   0.00350  -0.0129   0.7912   0.0498
  -6.700  -0.6141   0.00880   0.00344  -0.0128   0.7841   0.0506
  -6.600  -0.6028   0.00876   0.00338  -0.0126   0.7778   0.0513
  -6.500  -0.5917   0.00871   0.00332  -0.0125   0.7706   0.0525
  -6.400  -0.5806   0.00866   0.00326  -0.0123   0.7640   0.0537
  -6.300  -0.5694   0.00861   0.00320  -0.0122   0.7569   0.0549
  -6.200  -0.5581   0.00858   0.00315  -0.0120   0.7499   0.0558
  -6.100  -0.5468   0.00854   0.00309  -0.0119   0.7430   0.0570
  -5.900  -0.5245   0.00845   0.00298  -0.0116   0.7291   0.0597
  -5.800  -0.5132   0.00842   0.00293  -0.0115   0.7215   0.0609
  -5.700  -0.5019   0.00838   0.00288  -0.0113   0.7148   0.0623
  -5.600  -0.4907   0.00833   0.00283  -0.0112   0.7070   0.0640
  -5.500  -0.4795   0.00830   0.00278  -0.0110   0.6991   0.0657
  -5.400  -0.4682   0.00828   0.00273  -0.0109   0.6898   0.0672
  -5.300  -0.4571   0.00823   0.00268  -0.0108   0.6814   0.0694
  -5.000  -0.4235   0.00815   0.00254  -0.0104   0.6544   0.0758
  -4.900  -0.4121   0.00811   0.00250  -0.0103   0.6467   0.0781
  -4.800  -0.4009   0.00808   0.00246  -0.0101   0.6394   0.0806
  -4.700  -0.3896   0.00803   0.00241  -0.0100   0.6328   0.0839
  -4.500  -0.3671   0.00795   0.00232  -0.0098   0.6190   0.0911
  -4.300  -0.3447   0.00786   0.00223  -0.0095   0.6053   0.0998
  -4.200  -0.3335   0.00782   0.00219  -0.0094   0.5985   0.1048
  -4.100  -0.3224   0.00777   0.00215  -0.0093   0.5916   0.1108
  -4.000  -0.3114   0.00770   0.00210  -0.0092   0.5857   0.1189
  -3.900  -0.3006   0.00763   0.00204  -0.0090   0.5788   0.1286
  -3.800  -0.2898   0.00754   0.00199  -0.0088   0.5729   0.1407
  -3.700  -0.2794   0.00742   0.00192  -0.0086   0.5661   0.1569
  -3.600  -0.2694   0.00729   0.00185  -0.0083   0.5596   0.1788
  -3.500  -0.2598   0.00710   0.00176  -0.0079   0.5538   0.2064
  -3.400  -0.2497   0.00697   0.00170  -0.0076   0.5472   0.2302
  -3.300  -0.2393   0.00686   0.00164  -0.0074   0.5420   0.2489
  -3.200  -0.2284   0.00678   0.00160  -0.0072   0.5360   0.2639
  -3.100  -0.2176   0.00672   0.00157  -0.0071   0.5293   0.2765
  -3.000  -0.2064   0.00666   0.00154  -0.0070   0.5237   0.2887
  -2.900  -0.1953   0.00662   0.00151  -0.0069   0.5168   0.2999
  -2.800  -0.1842   0.00657   0.00148  -0.0067   0.5109   0.3112
  -2.700  -0.1730   0.00653   0.00146  -0.0066   0.5045   0.3206
  -2.600  -0.1616   0.00652   0.00144  -0.0066   0.4980   0.3288
  -2.500  -0.1503   0.00647   0.00142  -0.0065   0.4931   0.3383
  -2.400  -0.1389   0.00645   0.00141  -0.0064   0.4869   0.3465
  -2.300  -0.1275   0.00642   0.00139  -0.0063   0.4811   0.3554
  -2.200  -0.1160   0.00640   0.00138  -0.0063   0.4752   0.3629
  -2.100  -0.1047   0.00639   0.00137  -0.0062   0.4683   0.3711
  -2.000  -0.0933   0.00636   0.00135  -0.0061   0.4628   0.3796
  -1.900  -0.0819   0.00635   0.00134  -0.0061   0.4562   0.3882
  -1.800  -0.0706   0.00632   0.00133  -0.0060   0.4503   0.3982
  -1.700  -0.0591   0.00630   0.00132  -0.0059   0.4450   0.4070
  -1.600  -0.0478   0.00628   0.00131  -0.0059   0.4389   0.4161
  -1.500  -0.0363   0.00626   0.00131  -0.0058   0.4337   0.4244
  -1.400  -0.0248   0.00625   0.00130  -0.0058   0.4278   0.4329
  -1.300  -0.0135   0.00625   0.00130  -0.0057   0.4211   0.4413
  -1.200  -0.0019   0.00624   0.00129  -0.0057   0.4159   0.4489
  -1.100   0.0094   0.00623   0.00129  -0.0056   0.4094   0.4573
  -1.000   0.0210   0.00623   0.00129  -0.0056   0.4038   0.4647
  -0.900   0.0325   0.00621   0.00129  -0.0055   0.3983   0.4732
  -0.800   0.0440   0.00623   0.00129  -0.0055   0.3921   0.4806
  -0.700   0.0554   0.00621   0.00129  -0.0054   0.3875   0.4897
  -0.600   0.0670   0.00621   0.00130  -0.0054   0.3817   0.4977
  -0.500   0.0782   0.00621   0.00130  -0.0053   0.3755   0.5074
  -0.400   0.0897   0.00619   0.00130  -0.0052   0.3705   0.5174
  -0.300   0.1010   0.00619   0.00131  -0.0052   0.3641   0.5278
  -0.200   0.1123   0.00618   0.00131  -0.0051   0.3587   0.5388
  -0.100   0.1238   0.00618   0.00132  -0.0051   0.3534   0.5468
   0.000   0.1352   0.00620   0.00133  -0.0050   0.3474   0.5535
   0.100   0.1471   0.00621   0.00134  -0.0050   0.3429   0.5582
   0.200   0.1587   0.00622   0.00135  -0.0050   0.3375   0.5633
   0.300   0.1701   0.00625   0.00137  -0.0049   0.3313   0.5689
   0.400   0.1819   0.00627   0.00138  -0.0050   0.3267   0.5739
   0.500   0.1934   0.00629   0.00139  -0.0049   0.3209   0.5797
   0.600   0.2049   0.00631   0.00141  -0.0049   0.3155   0.5856
   0.700   0.2167   0.00633   0.00142  -0.0049   0.3110   0.5905
   0.800   0.2281   0.00635   0.00144  -0.0048   0.3057   0.5964
   0.900   0.2397   0.00637   0.00145  -0.0048   0.3010   0.6021
   1.100   0.2629   0.00641   0.00149  -0.0048   0.2912   0.6128
   1.200   0.2745   0.00644   0.00151  -0.0048   0.2866   0.6187
   1.300   0.2862   0.00646   0.00153  -0.0048   0.2823   0.6239
   1.400   0.2975   0.00648   0.00155  -0.0047   0.2774   0.6303
   1.500   0.3091   0.00651   0.00157  -0.0047   0.2731   0.6360
   1.600   0.3208   0.00652   0.00159  -0.0047   0.2697   0.6416
   1.700   0.3323   0.00654   0.00161  -0.0047   0.2656   0.6480
   1.800   0.3438   0.00659   0.00164  -0.0046   0.2606   0.6535
   1.900   0.3554   0.00659   0.00166  -0.0046   0.2576   0.6598
   2.000   0.3670   0.00661   0.00168  -0.0046   0.2541   0.6660
   2.100   0.3785   0.00665   0.00171  -0.0046   0.2500   0.6715
   2.200   0.3899   0.00667   0.00174  -0.0045   0.2461   0.6781
   2.300   0.4017   0.00669   0.00176  -0.0045   0.2438   0.6842
   2.400   0.4133   0.00670   0.00178  -0.0045   0.2409   0.6902
   2.500   0.4247   0.00673   0.00181  -0.0045   0.2376   0.6967
   2.700   0.4478   0.00678   0.00187  -0.0044   0.2316   0.7089
   2.800   0.4595   0.00680   0.00189  -0.0044   0.2294   0.7153
   2.900   0.4710   0.00682   0.00192  -0.0044   0.2269   0.7213
   3.000   0.4824   0.00685   0.00196  -0.0043   0.2241   0.7278
   3.100   0.4939   0.00689   0.00199  -0.0043   0.2208   0.7334
   3.200   0.5055   0.00690   0.00202  -0.0043   0.2190   0.7400
   3.300   0.5172   0.00692   0.00205  -0.0043   0.2173   0.7464
   3.400   0.5288   0.00694   0.00208  -0.0042   0.2154   0.7522
   3.500   0.5402   0.00697   0.00211  -0.0042   0.2132   0.7587
   3.600   0.5517   0.00701   0.00215  -0.0042   0.2109   0.7646
   3.700   0.5630   0.00704   0.00219  -0.0041   0.2081   0.7708
   3.800   0.5746   0.00706   0.00222  -0.0041   0.2065   0.7772
   3.900   0.5863   0.00708   0.00225  -0.0041   0.2052   0.7827
   4.000   0.5978   0.00710   0.00229  -0.0040   0.2036   0.7891
   4.100   0.6094   0.00713   0.00232  -0.0040   0.2018   0.7951
   4.200   0.6208   0.00716   0.00236  -0.0040   0.1999   0.8008
   4.300   0.6321   0.00720   0.00241  -0.0039   0.1976   0.8071
   4.400   0.6435   0.00725   0.00245  -0.0038   0.1950   0.8125
   4.500   0.6550   0.00726   0.00249  -0.0038   0.1940   0.8183
   4.600   0.6666   0.00728   0.00252  -0.0038   0.1928   0.8243
   4.800   0.6896   0.00734   0.00260  -0.0037   0.1898   0.8352
   4.900   0.7009   0.00738   0.00265  -0.0036   0.1880   0.8409
   5.000   0.7123   0.00743   0.00269  -0.0036   0.1859   0.8458
   5.100   0.7234   0.00748   0.00275  -0.0035   0.1835   0.8515
   5.200   0.7349   0.00751   0.00279  -0.0034   0.1823   0.8569
   5.300   0.7465   0.00754   0.00283  -0.0034   0.1814   0.8615
   5.400   0.7579   0.00756   0.00287  -0.0033   0.1801   0.8668
   5.500   0.7693   0.00760   0.00292  -0.0033   0.1786   0.8720
   5.700   0.7917   0.00770   0.00302  -0.0031   0.1752   0.8813
   5.800   0.8028   0.00775   0.00308  -0.0030   0.1731   0.8862
   5.900   0.8142   0.00781   0.00313  -0.0029   0.1712   0.8905
   6.000   0.8255   0.00784   0.00318  -0.0028   0.1704   0.8949
   6.100   0.8368   0.00787   0.00323  -0.0027   0.1693   0.8995
   6.200   0.8482   0.00792   0.00327  -0.0027   0.1680   0.9037
   6.300   0.8594   0.00797   0.00333  -0.0026   0.1664   0.9075
   6.400   0.8703   0.00802   0.00339  -0.0024   0.1647   0.9118
   6.500   0.8812   0.00809   0.00345  -0.0023   0.1627   0.9160
   6.600   0.8923   0.00816   0.00351  -0.0022   0.1605   0.9197
   6.700   0.9035   0.00819   0.00357  -0.0021   0.1597   0.9233
   6.800   0.9146   0.00824   0.00362  -0.0019   0.1586   0.9272
   6.900   0.9257   0.00829   0.00368  -0.0018   0.1573   0.9309
   7.000   0.9368   0.00835   0.00373  -0.0017   0.1558   0.9341
   7.100   0.9474   0.00841   0.00380  -0.0015   0.1541   0.9375
   7.200   0.9580   0.00849   0.00387  -0.0013   0.1522   0.9410
   7.300   0.9686   0.00856   0.00394  -0.0011   0.1501   0.9445
   7.400   0.9798   0.00861   0.00400  -0.0010   0.1492   0.9474
   7.500   0.9905   0.00866   0.00406  -0.0008   0.1481   0.9503
   7.600   1.0011   0.00872   0.00412  -0.0005   0.1468   0.9535
   7.700   1.0117   0.00879   0.00419  -0.0003   0.1453   0.9566
   7.800   1.0222   0.00887   0.00426  -0.0001   0.1436   0.9595
   7.900   1.0324   0.00896   0.00434   0.0002   0.1417   0.9621
   8.000   1.0426   0.00904   0.00442   0.0005   0.1398   0.9649
   8.100   1.0532   0.00909   0.00448   0.0007   0.1389   0.9677
   8.200   1.0636   0.00916   0.00455   0.0010   0.1377   0.9704
   8.300   1.0741   0.00923   0.00462   0.0012   0.1363   0.9728
   8.400   1.0846   0.00931   0.00470   0.0014   0.1346   0.9749
   8.500   1.0949   0.00941   0.00479   0.0017   0.1327   0.9773
   8.600   1.1047   0.00951   0.00488   0.0020   0.1306   0.9799
   8.700   1.1147   0.00958   0.00495   0.0024   0.1296   0.9824
   8.800   1.1268   0.00965   0.00502   0.0022   0.1284   0.9838
   8.900   1.1389   0.00974   0.00511   0.0021   0.1269   0.9851
   9.000   1.1506   0.00985   0.00520   0.0020   0.1251   0.9865
   9.100   1.1620   0.00996   0.00531   0.0020   0.1232   0.9881
   9.200   1.1734   0.01007   0.00541   0.0020   0.1213   0.9896
   9.300   1.1852   0.01015   0.00549   0.0019   0.1203   0.9910
   9.400   1.1968   0.01024   0.00558   0.0019   0.1189   0.9923
   9.500   1.2100   0.01036   0.00568   0.0015   0.1172   0.9928
   9.600   1.2231   0.01049   0.00580   0.0011   0.1153   0.9932
   9.700   1.2360   0.01063   0.00592   0.0007   0.1131   0.9936
   9.800   1.2494   0.01072   0.00602   0.0003   0.1119   0.9939
   9.900   1.2626   0.01083   0.00612  -0.0001   0.1104   0.9942
  10.000   1.2756   0.01095   0.00624  -0.0005   0.1087   0.9946
  10.100   1.2882   0.01110   0.00637  -0.0008   0.1067   0.9951
  10.200   1.3007   0.01125   0.00650  -0.0011   0.1046   0.9955
  10.300   1.3137   0.01135   0.00661  -0.0015   0.1034   0.9960
  10.400   1.3264   0.01147   0.00673  -0.0018   0.1018   0.9965
  10.500   1.3387   0.01162   0.00686  -0.0020   0.1000   0.9970
  10.600   1.3507   0.01179   0.00701  -0.0022   0.0979   0.9975
  10.700   1.3631   0.01191   0.00713  -0.0025   0.0965   0.9980
  10.800   1.3756   0.01204   0.00726  -0.0028   0.0952   0.9985
  10.900   1.3877   0.01218   0.00739  -0.0030   0.0936   0.9989
  11.000   1.3995   0.01235   0.00755  -0.0032   0.0918   0.9993
  11.100   1.4114   0.01252   0.00772  -0.0034   0.0899   0.9997
  11.200   1.4229   0.01265   0.00784  -0.0034   0.0887   1.0000
  11.300   1.4262   0.01274   0.00794  -0.0019   0.0877   1.0000
  11.400   1.4291   0.01284   0.00804  -0.0002   0.0866   1.0000
  11.500   1.4297   0.01293   0.00813   0.0019   0.0856   1.0000
  11.600   1.4302   0.01304   0.00824   0.0040   0.0845   1.0000
  11.700   1.4329   0.01317   0.00837   0.0056   0.0832   1.0000
  11.800   1.4386   0.01328   0.00848   0.0067   0.0824   1.0000
  11.900   1.4447   0.01341   0.00862   0.0077   0.0813   1.0000
  12.000   1.4510   0.01356   0.00877   0.0085   0.0800   1.0000
  12.100   1.4570   0.01374   0.00894   0.0094   0.0786   1.0000
  12.200   1.4631   0.01394   0.00914   0.0103   0.0771   1.0000
  12.300   1.4706   0.01409   0.00929   0.0109   0.0762   1.0000
  12.400   1.4778   0.01426   0.00946   0.0116   0.0751   1.0000
  12.500   1.4847   0.01444   0.00965   0.0123   0.0738   1.0000
  12.600   1.4911   0.01466   0.00986   0.0130   0.0725   1.0000
  12.700   1.4972   0.01490   0.01009   0.0138   0.0710   1.0000
  12.800   1.5047   0.01507   0.01027   0.0143   0.0702   1.0000
  12.900   1.5119   0.01527   0.01048   0.0149   0.0691   1.0000
  13.000   1.5184   0.01550   0.01071   0.0156   0.0679   1.0000
  13.100   1.5244   0.01576   0.01096   0.0163   0.0666   1.0000
  13.200   1.5305   0.01602   0.01122   0.0169   0.0654   1.0000
  13.300   1.5376   0.01623   0.01145   0.0175   0.0645   1.0000
  13.400   1.5443   0.01648   0.01169   0.0181   0.0634   1.0000
  13.500   1.5505   0.01675   0.01197   0.0187   0.0623   1.0000
  13.600   1.5558   0.01706   0.01228   0.0194   0.0611   1.0000
  13.700   1.5618   0.01736   0.01258   0.0200   0.0600   1.0000
  13.800   1.5684   0.01762   0.01285   0.0205   0.0592   1.0000
  13.900   1.5745   0.01791   0.01315   0.0211   0.0582   1.0000
  14.000   1.5801   0.01824   0.01348   0.0217   0.0571   1.0000
  14.100   1.5849   0.01862   0.01386   0.0223   0.0560   1.0000
  14.200   1.5904   0.01896   0.01421   0.0229   0.0551   1.0000
  14.300   1.5966   0.01927   0.01453   0.0234   0.0544   1.0000
  14.400   1.6021   0.01962   0.01489   0.0239   0.0535   1.0000
  14.500   1.6073   0.02001   0.01528   0.0244   0.0526   1.0000
  14.600   1.6116   0.02045   0.01573   0.0250   0.0517   1.0000
  14.700   1.6161   0.02089   0.01618   0.0255   0.0508   1.0000
  14.800   1.6217   0.02127   0.01657   0.0260   0.0501   1.0000
  14.900   1.6267   0.02169   0.01700   0.0264   0.0493   1.0000
  15.000   1.6312   0.02215   0.01747   0.0269   0.0485   1.0000
  15.100   1.6351   0.02267   0.01800   0.0274   0.0477   1.0000
  15.200   1.6385   0.02322   0.01856   0.0279   0.0469   1.0000
  15.300   1.6431   0.02371   0.01906   0.0283   0.0462   1.0000
  15.400   1.6478   0.02419   0.01956   0.0286   0.0456   1.0000
  15.500   1.6518   0.02473   0.02011   0.0290   0.0450   1.0000
  15.600   1.6554   0.02531   0.02070   0.0294   0.0443   1.0000
  15.700   1.6583   0.02595   0.02136   0.0297   0.0436   1.0000
  15.800   1.6607   0.02664   0.02206   0.0301   0.0429   1.0000
  15.900   1.6641   0.02727   0.02270   0.0304   0.0424   1.0000
  16.000   1.6678   0.02789   0.02334   0.0307   0.0418   1.0000
  16.100   1.6709   0.02856   0.02402   0.0309   0.0413   1.0000
  16.200   1.6733   0.02929   0.02477   0.0312   0.0407   1.0000
  16.300   1.6752   0.03007   0.02557   0.0314   0.0401   1.0000
  16.400   1.6763   0.03095   0.02647   0.0317   0.0395   1.0000
  16.500   1.6774   0.03183   0.02736   0.0318   0.0389   1.0000
  16.600   1.6799   0.03261   0.02816   0.0320   0.0385   1.0000
  16.700   1.6819   0.03343   0.02901   0.0321   0.0380   1.0000
  16.800   1.6834   0.03431   0.02991   0.0322   0.0375   1.0000
  16.900   1.6841   0.03528   0.03090   0.0323   0.0371   1.0000
  17.000   1.6845   0.03630   0.03193   0.0323   0.0366   1.0000
  17.100   1.6841   0.03740   0.03306   0.0324   0.0361   1.0000
  17.200   1.6831   0.03857   0.03425   0.0323   0.0357   1.0000
  17.300   1.6833   0.03965   0.03536   0.0323   0.0353   1.0000
  17.400   1.6836   0.04073   0.03646   0.0322   0.0350   1.0000
  17.500   1.6835   0.04185   0.03761   0.0322   0.0346   1.0000
  17.600   1.6830   0.04303   0.03881   0.0320   0.0343   1.0000
  17.700   1.6815   0.04433   0.04014   0.0319   0.0339   1.0000
  17.800   1.6797   0.04566   0.04150   0.0317   0.0336   1.0000
  17.900   1.6773   0.04708   0.04294   0.0315   0.0332   1.0000
  18.000   1.6739   0.04862   0.04451   0.0312   0.0329   1.0000
  18.100   1.6701   0.05020   0.04612   0.0309   0.0326   1.0000
  18.200   1.6660   0.05182   0.04778   0.0306   0.0322   1.0000
  18.300   1.6631   0.05335   0.04934   0.0302   0.0320   1.0000
  18.400   1.6602   0.05489   0.05091   0.0299   0.0318   1.0000
  18.500   1.6569   0.05648   0.05253   0.0295   0.0315   1.0000
  18.600   1.6523   0.05823   0.05432   0.0290   0.0313   1.0000
  18.700   1.6475   0.05999   0.05611   0.0285   0.0310   1.0000
  18.800   1.6423   0.06183   0.05798   0.0280   0.0308   1.0000
  18.900   1.6357   0.06385   0.06003   0.0275   0.0306   1.0000
  19.000   1.6291   0.06589   0.06211   0.0268   0.0303   1.0000
  19.100   1.6222   0.06795   0.06421   0.0262   0.0301   1.0000
  19.200   1.6139   0.07021   0.06650   0.0255   0.0299   1.0000
  19.300   1.6052   0.07252   0.06886   0.0247   0.0297   1.0000
  19.400   1.5967   0.07482   0.07119   0.0240   0.0295   1.0000
  19.500   1.5874   0.07727   0.07368   0.0231   0.0293   1.0000
  19.600   1.5775   0.07980   0.07625   0.0222   0.0292   1.0000
  19.700   1.5701   0.08199   0.07848   0.0214   0.0290   1.0000
  19.800   1.5615   0.08438   0.08091   0.0205   0.0289   1.0000
  19.900   1.5521   0.08688   0.08346   0.0196   0.0288   1.0000
  20.000   1.5442   0.08920   0.08581   0.0187   0.0286   1.0000
  20.100   1.5337   0.09189   0.08854   0.0176   0.0285   1.0000
  20.200   1.5242   0.09445   0.09114   0.0166   0.0284   1.0000
  20.300   1.5147   0.09701   0.09374   0.0156   0.0283   1.0000
  20.400   1.5036   0.09982   0.09659   0.0144   0.0281   1.0000
  20.500   1.4950   0.10230   0.09911   0.0133   0.0280   1.0000
  20.600   1.4835   0.10521   0.10206   0.0120   0.0279   1.0000
  20.700   1.4740   0.10785   0.10474   0.0108   0.0277   1.0000
  20.800   1.4634   0.11066   0.10759   0.0095   0.0276   1.0000
  20.900   1.4529   0.11348   0.11044   0.0082   0.0275   1.0000
  21.000   1.4435   0.11616   0.11316   0.0069   0.0273   1.0000
  21.100   1.4328   0.11907   0.11611   0.0054   0.0272   1.0000
  21.200   1.4242   0.12169   0.11876   0.0041   0.0270   1.0000
  21.300   1.4137   0.12459   0.12170   0.0026   0.0269   1.0000
  21.400   1.4052   0.12721   0.12435   0.0012   0.0267   1.0000
  21.500   1.3953   0.13007   0.12725  -0.0004   0.0265   1.0000
  21.600   1.3870   0.13273   0.12993  -0.0019   0.0263   1.0000
  21.700   1.3824   0.13483   0.13207  -0.0031   0.0262   1.0000
  21.800   1.3744   0.13747   0.13474  -0.0046   0.0261   1.0000
  21.900   1.3699   0.13958   0.13687  -0.0059   0.0259   1.0000
  22.000   1.3651   0.14174   0.13906  -0.0072   0.0257   1.0000
  22.100   1.3576   0.14433   0.14168  -0.0087   0.0256   1.0000
  22.200   1.3536   0.14638   0.14376  -0.0100   0.0254   1.0000
  22.300   1.3490   0.14854   0.14593  -0.0114   0.0252   1.0000
  22.400   1.3419   0.15111   0.14854  -0.0130   0.0250   1.0000
  22.500   1.3379   0.15321   0.15066  -0.0144   0.0248   1.0000
  22.600   1.3340   0.15530   0.15277  -0.0158   0.0246   1.0000
  22.700   1.3267   0.15796   0.15545  -0.0176   0.0244   1.0000
  22.800   1.3225   0.16012   0.15763  -0.0190   0.0242   1.0000
  22.900   1.3187   0.16221   0.15974  -0.0205   0.0239   1.0000
  23.100   1.3097   0.16666   0.16423  -0.0236   0.0235   1.0000
  23.200   1.3086   0.16831   0.16590  -0.0248   0.0234   1.0000
  23.300   1.3073   0.17001   0.16762  -0.0260   0.0232   1.0000
  23.400   1.3028   0.17226   0.16989  -0.0276   0.0230   1.0000
  23.500   1.3005   0.17415   0.17180  -0.0290   0.0228   1.0000
  23.600   1.2989   0.17591   0.17358  -0.0303   0.0225   1.0000
  23.700   1.2971   0.17771   0.17539  -0.0317   0.0223   1.0000
  23.800   1.2926   0.18000   0.17771  -0.0334   0.0221   1.0000
  23.900   1.2897   0.18202   0.17974  -0.0349   0.0219   1.0000
  24.000   1.2876   0.18392   0.18165  -0.0364   0.0217   1.0000
  24.100   1.2851   0.18586   0.18361  -0.0379   0.0214   1.0000
  24.200   1.2801   0.18831   0.18608  -0.0397   0.0212   1.0000
  24.300   1.2800   0.18984   0.18763  -0.0409   0.0211   1.0000
  24.400   1.2800   0.19134   0.18914  -0.0422   0.0209   1.0000
  24.500   1.2799   0.19286   0.19068  -0.0434   0.0207   1.0000
  24.600   1.2793   0.19448   0.19231  -0.0447   0.0205   1.0000
  24.700   1.2765   0.19651   0.19436  -0.0463   0.0204   1.0000
  24.800   1.2755   0.19821   0.19607  -0.0477   0.0202   1.0000
  24.900   1.2748   0.19985   0.19773  -0.0491   0.0200   1.0000
  25.000   1.2742   0.20148   0.19937  -0.0504   0.0198   1.0000
  25.100   1.2714   0.20354   0.20145  -0.0521   0.0196   1.0000
  25.200   1.2691   0.20552   0.20344  -0.0537   0.0194   1.0000
  25.300   1.2676   0.20735   0.20528  -0.0552   0.0192   1.0000
  25.400   1.2661   0.20919   0.20713  -0.0568   0.0189   1.0000
  25.500   1.2663   0.21069   0.20864  -0.0580   0.0188   1.0000
  25.600   1.2654   0.21240   0.21037  -0.0595   0.0187   1.0000
  25.700   1.2656   0.21389   0.21188  -0.0608   0.0185   1.0000
  25.800   1.2661   0.21533   0.21333  -0.0621   0.0183   1.0000
  25.900   1.2666   0.21676   0.21478  -0.0634   0.0181   1.0000
  26.000   1.2668   0.21826   0.21628  -0.0647   0.0179   1.0000
  26.100   1.2650   0.22018   0.21822  -0.0663   0.0178   1.0000
  26.200   1.2640   0.22193   0.21998  -0.0678   0.0176   1.0000
  26.300   1.2637   0.22355   0.22160  -0.0693   0.0174   1.0000
  26.400   1.2633   0.22519   0.22326  -0.0707   0.0172   1.0000
  26.500   1.2619   0.22705   0.22512  -0.0723   0.0170   1.0000
  26.600   1.2594   0.22913   0.22722  -0.0742   0.0167   1.0000
  26.700   1.2605   0.23046   0.22856  -0.0754   0.0166   1.0000
  26.800   1.2618   0.23173   0.22985  -0.0766   0.0165   1.0000
  26.900   1.2630   0.23302   0.23115  -0.0778   0.0164   1.0000
  27.000   1.2640   0.23436   0.23250  -0.0791   0.0162   1.0000
  27.100   1.2639   0.23594   0.23409  -0.0805   0.0161   1.0000
  27.200   1.2634   0.23761   0.23577  -0.0820   0.0159   1.0000
  27.300   1.2637   0.23908   0.23726  -0.0834   0.0157   1.0000
  27.400   1.2643   0.24051   0.23870  -0.0847   0.0156   1.0000
  27.500   1.2646   0.24198   0.24017  -0.0861   0.0154   1.0000
  27.600   1.2643   0.24363   0.24183  -0.0876   0.0153   1.0000
  27.700   1.2625   0.24555   0.24376  -0.0894   0.0151   1.0000
  27.800   1.2621   0.24721   0.24543  -0.0909   0.0149   1.0000
  27.900   1.2628   0.24861   0.24684  -0.0922   0.0147   1.0000
  28.000   1.2643   0.24985   0.24809  -0.0935   0.0146   1.0000
  28.100   1.2656   0.25110   0.24935  -0.0947   0.0145   1.0000
  28.200   1.2659   0.25258   0.25084  -0.0961   0.0144   1.0000
  28.300   1.2662   0.25408   0.25236  -0.0976   0.0142   1.0000
  28.400   1.2671   0.25543   0.25372  -0.0989   0.0141   1.0000
  28.500   1.2681   0.25676   0.25506  -0.1002   0.0139   1.0000
  28.600   1.2690   0.25812   0.25642  -0.1015   0.0138   1.0000
  28.700   1.2697   0.25952   0.25783  -0.1029   0.0136   1.0000
  28.800   1.2691   0.26121   0.25953  -0.1045   0.0135   1.0000
  28.900   1.2689   0.26283   0.26115  -0.1061   0.0133   1.0000
  29.000   1.2693   0.26432   0.26265  -0.1075   0.0132   1.0000
  29.100   1.2699   0.26575   0.26408  -0.1089   0.0130   1.0000
  29.200   1.2711   0.26701   0.26535  -0.1102   0.0129   1.0000
  29.300   1.2725   0.26826   0.26661  -0.1115   0.0128   1.0000
  29.400   1.2729   0.26971   0.26807  -0.1129   0.0127   1.0000
  29.500   1.2736   0.27110   0.26948  -0.1143   0.0126   1.0000
  29.600   1.2748   0.27238   0.27077  -0.1156   0.0125   1.0000
  29.700   1.2761   0.27362   0.27202  -0.1169   0.0124   1.0000
  29.800   1.2774   0.27487   0.27328  -0.1182   0.0122   1.0000
  29.900   1.2785   0.27615   0.27456  -0.1196   0.0121   1.0000
  30.000   1.2792   0.27756   0.27599  -0.1210   0.0120   1.0000
